8500-Node/IEEE8500_EXP_POWERS.csv
Element, Terminal, P(kW), Q(kvar),  P_Normal, Q_Normal, P_Emergency, Q_Emergency
"Transformer.G_M1125934",   1,     -1005.4,        24.7,       703.1,        17.3,       593.1,        14.6
"Transformer.G_M1125934",   2,      1029.9,       327.4
"Reactor.G_M1125934"    ,   1,         0.1,         0.0,         0.1,         0.0,         0.1,         0.0
"Reactor.G_M1125934"    ,   2,         0.0,         0.0
"Line.HVMV_SUB_CONNECTOR",   1,     15937.1,      9293.8,     13083.4,      7629.7,     11656.5,      6797.6
"Line.HVMV_SUB_CONNECTOR",   2,    -15937.1,     -9293.8
"Line.LN5502549-1"      ,   1,         3.9,         1.0,         0.0,         0.0,         0.0,         0.0
"Line.LN5502549-1"      ,   2,        -3.9,        -1.0
"Line.LN6259988-1"      ,   1,        10.3,         2.7,         0.0,         0.0,         0.0,         0.0
"Line.LN6259988-1"      ,   2,       -10.3,        -2.8
"Line.LN6077796-1"      ,   1,         3.4,         0.9,         0.0,         0.0,         0.0,         0.0
"Line.LN6077796-1"      ,   2,        -3.4,        -0.9
"Line.LN5835135-2"      ,   1,        30.1,         8.0,         0.0,         0.0,         0.0,         0.0
"Line.LN5835135-2"      ,   2,       -30.1,        -7.9
"Line.LN5896826-1"      ,   1,         0.0,        -0.0,         0.0,         0.0,         0.0,         0.0
"Line.LN5896826-1"      ,   2,         0.0,         0.0
"Line.LN5714038-1"      ,   1,         7.4,         1.9,         0.0,         0.0,         0.0,         0.0
"Line.LN5714038-1"      ,   2,        -7.4,        -1.9
"Line.LN5653457-1"      ,   1,       344.6,        91.3,         0.0,         0.0,         0.0,         0.0
"Line.LN5653457-1"      ,   2,      -344.4,       -91.3
"Line.LN5835173-1"      ,   1,       678.8,       181.6,         0.0,         0.0,         0.0,         0.0
"Line.LN5835173-1"      ,   2,      -678.7,      -181.5
"Line.LN6321415-1"      ,   1,         2.8,         0.7,         0.0,         0.0,         0.0,         0.0
"Line.LN6321415-1"      ,   2,        -2.8,        -0.7
"Line.LN5565092-1"      ,   1,        15.6,         4.1,         0.0,         0.0,         0.0,         0.0
"Line.LN5565092-1"      ,   2,       -15.6,        -4.1
"Line.LN6073648-1"      ,   1,        21.6,         5.7,         0.0,         0.0,         0.0,         0.0
"Line.LN6073648-1"      ,   2,       -21.6,        -5.7
"Line.LN5774457-1"      ,   1,       431.9,       114.7,         0.0,         0.0,         0.0,         0.0
"Line.LN5774457-1"      ,   2,      -431.8,      -114.7
"Line.LN5534966-3"      ,   1,        84.9,        22.7,         0.0,         0.0,         0.0,         0.0
"Line.LN5534966-3"      ,   2,       -84.9,       -22.7
"Line.LN5859996-1"      ,   1,         5.4,         1.4,         0.0,         0.0,         0.0,         0.0
"Line.LN5859996-1"      ,   2,        -5.4,        -1.4
"Line.LN6138610-2"      ,   1,      1831.4,       494.8,         0.0,         0.0,         0.0,         0.0
"Line.LN6138610-2"      ,   2,     -1830.1,      -494.3
"Line.LN6258435-3"      ,   1,        19.7,         5.3,         0.0,         0.0,         0.0,         0.0
"Line.LN6258435-3"      ,   2,       -19.7,        -5.3
"Line.LN5804790-1"      ,   1,        10.3,         2.7,         0.0,         0.0,         0.0,         0.0
"Line.LN5804790-1"      ,   2,       -10.3,        -2.8
"Line.LN6900591-14"     ,   1,        35.2,         9.4,         0.0,         0.0,         0.0,         0.0
"Line.LN6900591-14"     ,   2,       -35.2,        -9.4
"Line.LN6409873-1"      ,   1,        35.5,         9.2,         0.0,         0.0,         0.0,         0.0
"Line.LN6409873-1"      ,   2,       -35.5,        -9.2
"Line.LN6014135-1"      ,   1,        67.6,        18.0,         0.0,         0.0,         0.0,         0.0
"Line.LN6014135-1"      ,   2,       -67.6,       -18.0
"Line.LN6077784-1"      ,   1,       871.7,       232.6,         0.0,         0.0,         0.0,         0.0
"Line.LN6077784-1"      ,   2,      -871.5,      -232.4
"Line.LN5744338-1"      ,   1,        73.9,        19.7,         0.0,         0.0,         0.0,         0.0
"Line.LN5744338-1"      ,   2,       -73.9,       -19.7
"Line.LN6991381-4"      ,   1,        39.0,        10.5,         0.0,         0.0,         0.0,         0.0
"Line.LN6991381-4"      ,   2,       -39.0,       -10.5
"Line.LN5774480-1"      ,   1,        62.8,        16.7,         0.0,         0.0,         0.0,         0.0
"Line.LN5774480-1"      ,   2,       -62.8,       -16.7
"Line.LN5986938-3"      ,   1,        39.6,        10.5,         0.0,         0.0,         0.0,         0.0
"Line.LN5986938-3"      ,   2,       -39.6,       -10.5
"Line.LN5894230-1"      ,   1,        10.3,         2.7,         0.0,         0.0,         0.0,         0.0
"Line.LN5894230-1"      ,   2,       -10.3,        -2.8
"Line.LN5683858-3"      ,   1,        48.1,        12.8,         0.0,         0.0,         0.0,         0.0
"Line.LN5683858-3"      ,   2,       -48.1,       -12.8
"Line.LN5920279-5"      ,   1,      4797.3,       562.4,         0.0,         0.0,         0.0,         0.0
"Line.LN5920279-5"      ,   2,     -4796.6,      -560.6
"Line.LN6439600-1"      ,   1,         9.5,         2.5,         0.0,         0.0,         0.0,         0.0
"Line.LN6439600-1"      ,   2,        -9.5,        -2.5
"Line.LN5589097-1"      ,   1,        13.5,         3.6,         0.0,         0.0,         0.0,         0.0
"Line.LN5589097-1"      ,   2,       -13.5,        -3.6
"Line.LN5651975-1"      ,   1,       726.4,       193.7,         0.0,         0.0,         0.0,         0.0
"Line.LN5651975-1"      ,   2,      -726.1,      -193.6
"Line.LN5865236-1"      ,   1,        19.6,         5.2,         0.0,         0.0,         0.0,         0.0
"Line.LN5865236-1"      ,   2,       -19.6,        -5.2
"Line.LN5593232-1"      ,   1,        10.3,         2.7,         0.0,         0.0,         0.0,         0.0
"Line.LN5593232-1"      ,   2,       -10.3,        -2.8
"Line.LN5740283-1"      ,   1,        12.4,         3.3,         0.0,         0.0,         0.0,         0.0
"Line.LN5740283-1"      ,   2,       -12.4,        -3.3
"Line.LN6106559-1"      ,   1,         7.8,         2.1,         0.0,         0.0,         0.0,         0.0
"Line.LN6106559-1"      ,   2,        -7.8,        -2.1
"Line.LN5714056-3"      ,   1,       581.1,       154.1,         0.0,         0.0,         0.0,         0.0
"Line.LN5714056-3"      ,   2,      -580.4,      -153.9
"Line.LN5985355-3"      ,   1,       110.7,        29.6,         0.0,         0.0,         0.0,         0.0
"Line.LN5985355-3"      ,   2,      -110.6,       -29.5
"Line.LN5531956-1"      ,   1,         9.4,         2.5,         0.0,         0.0,         0.0,         0.0
"Line.LN5531956-1"      ,   2,        -9.4,        -2.5
"Line.LN5650048-1"      ,   1,         2.8,         0.7,         0.0,         0.0,         0.0,         0.0
"Line.LN5650048-1"      ,   2,        -2.8,        -0.7
"Line.LN6290203-1"      ,   1,       547.6,       145.8,         0.0,         0.0,         0.0,         0.0
"Line.LN6290203-1"      ,   2,      -547.4,      -145.7
"Line.LN6134414-1"      ,   1,        20.7,         5.5,         0.0,         0.0,         0.0,         0.0
"Line.LN6134414-1"      ,   2,       -20.7,        -5.5
"Line.LN6259998-2"      ,   1,        12.4,         3.3,         0.0,         0.0,         0.0,         0.0
"Line.LN6259998-2"      ,   2,       -12.4,        -3.3
"Line.LN6078767-1"      ,   1,      1336.0,        25.0,         0.0,         0.0,         0.0,         0.0
"Line.LN6078767-1"      ,   2,     -1335.5,       -23.8
"Line.LN6017300-1"      ,   1,         6.2,         1.6,         0.0,         0.0,         0.0,         0.0
"Line.LN6017300-1"      ,   2,        -6.2,        -1.7
"Line.LN8979257-2"      ,   1,        21.8,         5.7,         0.0,         0.0,         0.0,         0.0
"Line.LN8979257-2"      ,   2,       -21.8,        -5.7
"Line.LN81048109-1"     ,   1,         7.4,         1.9,         0.0,         0.0,         0.0,         0.0
"Line.LN81048109-1"     ,   2,        -7.4,        -2.0
"Line.293471"           ,   1,        23.5,         6.3,         0.0,         0.0,         0.0,         0.0
"Line.293471"           ,   2,       -23.5,        -6.3
"Line.LN5534965-2"      ,   1,         9.8,         2.6,         0.0,         0.0,         0.0,         0.0
"Line.LN5534965-2"      ,   2,        -9.8,        -2.6
"Line.LN5655683-1"      ,   1,       147.7,        39.3,         0.0,         0.0,         0.0,         0.0
"Line.LN5655683-1"      ,   2,      -147.6,       -39.3
"Line.LN5686247-1"      ,   1,         4.4,         1.2,         0.0,         0.0,         0.0,         0.0
"Line.LN5686247-1"      ,   2,        -4.4,        -1.2
"Line.LN6048642-1"      ,   1,         0.0,        -0.0,         0.0,         0.0,         0.0,         0.0
"Line.LN6048642-1"      ,   2,        -0.0,        -0.0
"Line.LN5928544-3"      ,   1,       103.7,        27.5,         0.0,         0.0,         0.0,         0.0
"Line.LN5928544-3"      ,   2,      -103.6,       -27.5
"Line.LN6108172-1"      ,   1,        18.9,         5.0,         0.0,         0.0,         0.0,         0.0
"Line.LN6108172-1"      ,   2,       -18.9,        -5.1
"Line.LN5532754-1"      ,   1,       647.6,       172.3,         0.0,         0.0,         0.0,         0.0
"Line.LN5532754-1"      ,   2,      -647.5,      -172.2
"Line.LN5591834-1"      ,   1,        26.8,         7.1,         0.0,         0.0,         0.0,         0.0
"Line.LN5591834-1"      ,   2,       -26.8,        -7.1
"Line.LN6347196-2"      ,   1,       405.6,       107.4,         0.0,         0.0,         0.0,         0.0
"Line.LN6347196-2"      ,   2,      -405.5,      -107.3
"Line.LN5532741-1"      ,   1,        63.1,        16.7,         0.0,         0.0,         0.0,         0.0
"Line.LN5532741-1"      ,   2,       -63.1,       -16.7
"Line.LN5804803-1"      ,   1,         5.4,         1.4,         0.0,         0.0,         0.0,         0.0
"Line.LN5804803-1"      ,   2,        -5.4,        -1.4
"Line.LN6169248-1"      ,   1,      1317.3,       356.0,         0.0,         0.0,         0.0,         0.0
"Line.LN6169248-1"      ,   2,     -1316.5,      -355.3
"Line.LN5532786-2"      ,   1,         4.3,         1.1,         0.0,         0.0,         0.0,         0.0
"Line.LN5532786-2"      ,   2,        -4.3,        -1.1
"Line.LN5744339-1"      ,   1,       114.5,        30.5,         0.0,         0.0,         0.0,         0.0
"Line.LN5744339-1"      ,   2,      -114.5,       -30.5
"Line.LN5531255-3"      ,   1,       124.6,        33.3,         0.0,         0.0,         0.0,         0.0
"Line.LN5531255-3"      ,   2,      -124.6,       -33.2
"Line.LN5926308-2"      ,   1,       559.8,       148.7,         0.0,         0.0,         0.0,         0.0
"Line.LN5926308-2"      ,   2,      -559.6,      -148.7
"Line.LN5683856-3"      ,   1,         9.8,         2.6,         0.0,         0.0,         0.0,         0.0
"Line.LN5683856-3"      ,   2,        -9.8,        -2.6
"Line.LN6171502-1"      ,   1,        15.7,         4.2,         0.0,         0.0,         0.0,         0.0
"Line.LN6171502-1"      ,   2,       -15.7,        -4.2
"Line.LN5593228-1"      ,   1,         2.8,         0.7,         0.0,         0.0,         0.0,         0.0
"Line.LN5593228-1"      ,   2,        -2.8,        -0.7
"Line.LN6380800-1"      ,   1,         2.7,         0.7,         0.0,         0.0,         0.0,         0.0
"Line.LN6380800-1"      ,   2,        -2.7,        -0.7
"Line.LN6199525-2"      ,   1,         3.6,         1.0,         0.0,         0.0,         0.0,         0.0
"Line.LN6199525-2"      ,   2,        -3.6,        -1.0
"Line.LN5772710-2"      ,   1,        77.6,        20.8,         0.0,         0.0,         0.0,         0.0
"Line.LN5772710-2"      ,   2,       -77.6,       -20.8
"Line.LN8961760-1"      ,   1,        36.4,         9.5,         0.0,         0.0,         0.0,         0.0
"Line.LN8961760-1"      ,   2,       -36.4,        -9.5
"Line.LN6047556-1"      ,   1,        10.3,         2.7,         0.0,         0.0,         0.0,         0.0
"Line.LN6047556-1"      ,   2,       -10.3,        -2.8
"Line.LN6138603-1"      ,   1,         4.4,         1.2,         0.0,         0.0,         0.0,         0.0
"Line.LN6138603-1"      ,   2,        -4.4,        -1.2
"Line.LN6108139-1"      ,   1,         1.5,         0.4,         0.0,         0.0,         0.0,         0.0
"Line.LN6108139-1"      ,   2,        -1.5,        -0.4
"Line.LN6388581-2"      ,   1,         5.6,         1.4,         0.0,         0.0,         0.0,         0.0
"Line.LN6388581-2"      ,   2,        -5.6,        -1.5
"Line.LN5774460-1"      ,   1,         5.6,         1.5,         0.0,         0.0,         0.0,         0.0
"Line.LN5774460-1"      ,   2,        -5.6,        -1.5
"Line.LN5624387-1"      ,   1,        15.5,         4.1,         0.0,         0.0,         0.0,         0.0
"Line.LN5624387-1"      ,   2,       -15.5,        -4.1
"Line.LN6137087-1"      ,   1,        82.7,        21.9,         0.0,         0.0,         0.0,         0.0
"Line.LN6137087-1"      ,   2,       -82.7,       -21.9
"Line.LN6077809-1"      ,   1,       103.6,        27.5,         0.0,         0.0,         0.0,         0.0
"Line.LN6077809-1"      ,   2,      -103.6,       -27.5
"Line.LN6440079-1"      ,   1,        26.8,         7.1,         0.0,         0.0,         0.0,         0.0
"Line.LN6440079-1"      ,   2,       -26.8,        -7.1
"Line.LN5804794-1"      ,   1,        82.0,        21.9,         0.0,         0.0,         0.0,         0.0
"Line.LN5804794-1"      ,   2,       -82.0,       -21.9
"Line.LN5654484-1"      ,   1,        10.3,         2.8,         0.0,         0.0,         0.0,         0.0
"Line.LN5654484-1"      ,   2,       -10.3,        -2.8
"Line.LN5774465-1"      ,   1,        18.8,         4.9,         0.0,         0.0,         0.0,         0.0
"Line.LN5774465-1"      ,   2,       -18.8,        -4.9
"Line.LN5473349-1"      ,   1,      4537.3,       441.8,         0.0,         0.0,         0.0,         0.0
"Line.LN5473349-1"      ,   2,     -4536.7,      -440.3
"Line.LN6169253-1"      ,   1,         9.5,         2.5,         0.0,         0.0,         0.0,         0.0
"Line.LN6169253-1"      ,   2,        -9.5,        -2.5
"Line.LN6350536-1"      ,   1,         5.7,         1.5,         0.0,         0.0,         0.0,         0.0
"Line.LN6350536-1"      ,   2,        -5.7,        -1.5
"Line.LN6048523-1"      ,   1,       149.0,        39.6,         0.0,         0.0,         0.0,         0.0
"Line.LN6048523-1"      ,   2,      -149.0,       -39.5
"Line.LN5594152-1"      ,   1,       166.3,        44.3,         0.0,         0.0,         0.0,         0.0
"Line.LN5594152-1"      ,   2,      -166.3,       -44.2
"Line.LN5865248-1"      ,   1,       616.2,       163.7,         0.0,         0.0,         0.0,         0.0
"Line.LN5865248-1"      ,   2,      -615.9,      -163.6
"Line.LN6046143-1"      ,   1,         1.1,         0.3,         0.0,         0.0,         0.0,         0.0
"Line.LN6046143-1"      ,   2,        -1.1,        -0.3
"Line.LN5803287-1"      ,   1,        20.8,         5.5,         0.0,         0.0,         0.0,         0.0
"Line.LN5803287-1"      ,   2,       -20.8,        -5.5
"Line.LN5589094-1"      ,   1,       230.0,        61.7,         0.0,         0.0,         0.0,         0.0
"Line.LN5589094-1"      ,   2,      -229.9,       -61.6
"Line.LN5954983-1"      ,   1,       124.6,        33.2,         0.0,         0.0,         0.0,         0.0
"Line.LN5954983-1"      ,   2,      -124.6,       -33.2
"Line.LN5924696-2"      ,   1,         5.9,         1.6,         0.0,         0.0,         0.0,         0.0
"Line.LN5924696-2"      ,   2,        -5.9,        -1.6
"Line.LN6506311-4"      ,   1,         6.2,         1.6,         0.0,         0.0,         0.0,         0.0
"Line.LN6506311-4"      ,   2,        -6.2,        -1.6
"Line.LN5653493-1"      ,   1,        30.3,         8.0,         0.0,         0.0,         0.0,         0.0
"Line.LN5653493-1"      ,   2,       -30.3,        -8.0
"Line.LN5684836-1"      ,   1,      4630.6,       478.4,         0.0,         0.0,         0.0,         0.0
"Line.LN5684836-1"      ,   2,     -4628.5,      -473.4
"Line.LN5715016-3"      ,   1,         5.4,         1.4,         0.0,         0.0,         0.0,         0.0
"Line.LN5715016-3"      ,   2,        -5.4,        -1.4
"Line.LN6138614-1"      ,   1,       667.2,      -544.8,         0.0,         0.0,         0.0,         0.0
"Line.LN6138614-1"      ,   2,      -666.5,       545.0
"Line.LN6077781-2"      ,   1,      3891.5,      1067.6,         0.0,         0.0,         0.0,         0.0
"Line.LN6077781-2"      ,   2,     -3883.7,     -1060.0
"Line.LN5675121-1"      ,   1,         4.1,         1.1,         0.0,         0.0,         0.0,         0.0
"Line.LN5675121-1"      ,   2,        -4.1,        -1.1
"Line.LN5773046-1"      ,   1,        68.4,        18.2,         0.0,         0.0,         0.0,         0.0
"Line.LN5773046-1"      ,   2,       -68.4,       -18.2
"Line.LN6380809-2"      ,   1,       370.7,        98.7,         0.0,         0.0,         0.0,         0.0
"Line.LN6380809-2"      ,   2,      -370.6,       -98.7
"Line.LN6018326-1"      ,   1,        12.4,         3.3,         0.0,         0.0,         0.0,         0.0
"Line.LN6018326-1"      ,   2,       -12.4,        -3.3
"Line.LN5472356-1"      ,   1,         1.0,         0.3,         0.0,         0.0,         0.0,         0.0
"Line.LN5472356-1"      ,   2,        -1.0,        -0.3
"Line.LN6139641-1"      ,   1,      5600.0,       946.8,         0.0,         0.0,         0.0,         0.0
"Line.LN6139641-1"      ,   2,     -5598.3,      -942.8
"Line.LN6018341-1"      ,   1,      1218.5,       -37.4,         0.0,         0.0,         0.0,         0.0
"Line.LN6018341-1"      ,   2,     -1217.0,        41.3
"Line.LN6017302-1"      ,   1,       129.1,        34.4,         0.0,         0.0,         0.0,         0.0
"Line.LN6017302-1"      ,   2,      -129.0,       -34.4
"Line.LN6199505-1"      ,   1,         1.1,         0.3,         0.0,         0.0,         0.0,         0.0
"Line.LN6199505-1"      ,   2,        -1.1,        -0.3
"Line.LN5682327-1"      ,   1,       146.9,        39.2,         0.0,         0.0,         0.0,         0.0
"Line.LN5682327-1"      ,   2,      -146.9,       -39.2
"Line.LN6290243-1"      ,   1,         8.3,         2.2,         0.0,         0.0,         0.0,         0.0
"Line.LN6290243-1"      ,   2,        -8.3,        -2.2
"Line.X8223_48332_SW"   ,   1,      1031.1,      -447.0,         0.0,         0.0,         0.0,         0.0
"Line.X8223_48332_SW"   ,   2,     -1031.1,       447.0
"Line.LN6413567-3"      ,   1,      1031.3,      -446.9,         0.0,         0.0,         0.0,         0.0
"Line.LN6413567-3"      ,   2,     -1031.1,       447.0
"Line.LN5591731-3"      ,   1,      4840.8,       587.0,         0.0,         0.0,         0.0,         0.0
"Line.LN5591731-3"      ,   2,     -4840.8,      -586.8
"Line.LN5653470-1"      ,   1,        22.7,         6.0,         0.0,         0.0,         0.0,         0.0
"Line.LN5653470-1"      ,   2,       -22.7,        -6.1
"Line.LN6017316-1"      ,   1,        66.6,        17.8,         0.0,         0.0,         0.0,         0.0
"Line.LN6017316-1"      ,   2,       -66.6,       -17.7
"Line.LN5926299-1"      ,   1,         5.2,         1.4,         0.0,         0.0,         0.0,         0.0
"Line.LN5926299-1"      ,   2,        -5.2,        -1.4
"Line.LN5683831-1"      ,   1,       647.8,       172.1,         0.0,         0.0,         0.0,         0.0
"Line.LN5683831-1"      ,   2,      -647.4,      -172.0
"Line.LN6352700-1"      ,   1,        36.0,         9.6,         0.0,         0.0,         0.0,         0.0
"Line.LN6352700-1"      ,   2,       -36.0,        -9.6
"Line.LN6047570-1"      ,   1,         5.4,         1.4,         0.0,         0.0,         0.0,         0.0
"Line.LN6047570-1"      ,   2,        -5.4,        -1.4
"Line.LN5624342-1"      ,   1,      4651.5,       495.9,         0.0,         0.0,         0.0,         0.0
"Line.LN5624342-1"      ,   2,     -4649.8,      -491.8
"Line.LN6259992-1"      ,   1,         9.0,         2.4,         0.0,         0.0,         0.0,         0.0
"Line.LN6259992-1"      ,   2,        -9.0,        -2.4
"Line.LN5841919-1"      ,   1,         1.5,         0.4,         0.0,         0.0,         0.0,         0.0
"Line.LN5841919-1"      ,   2,        -1.5,        -0.4
"Line.LN6380811-1"      ,   1,        29.3,         7.8,         0.0,         0.0,         0.0,         0.0
"Line.LN6380811-1"      ,   2,       -29.3,        -7.8
"Line.LN5683832-1"      ,   1,         9.0,         2.4,         0.0,         0.0,         0.0,         0.0
"Line.LN5683832-1"      ,   2,        -9.0,        -2.4
"Line.LN6077778-1"      ,   1,         9.0,         2.4,         0.0,         0.0,         0.0,         0.0
"Line.LN6077778-1"      ,   2,        -9.0,        -2.4
"Line.LN5561442-2"      ,   1,      5523.4,       871.8,         0.0,         0.0,         0.0,         0.0
"Line.LN5561442-2"      ,   2,     -5521.0,      -866.2
"Line.LN6259983-1"      ,   1,         2.6,         0.7,         0.0,         0.0,         0.0,         0.0
"Line.LN6259983-1"      ,   2,        -2.6,        -0.7
"Line.LN5865244-1"      ,   1,       115.3,        30.6,         0.0,         0.0,         0.0,         0.0
"Line.LN5865244-1"      ,   2,      -115.3,       -30.6
"Line.LN6350555-1"      ,   1,         1.7,         0.4,         0.0,         0.0,         0.0,         0.0
"Line.LN6350555-1"      ,   2,        -1.7,        -0.4
"Line.LN5714039-1"      ,   1,        42.7,        11.4,         0.0,         0.0,         0.0,         0.0
"Line.LN5714039-1"      ,   2,       -42.6,       -11.4
"Line.LN5889821-1"      ,   1,      4771.4,       547.4,         0.0,         0.0,         0.0,         0.0
"Line.LN5889821-1"      ,   2,     -4768.5,      -540.7
"Line.LN5804791-1"      ,   1,       895.1,      -483.4,         0.0,         0.0,         0.0,         0.0
"Line.LN5804791-1"      ,   2,      -894.1,       483.8
"Line.LN5653486-1"      ,   1,        31.1,         8.3,         0.0,         0.0,         0.0,         0.0
"Line.LN5653486-1"      ,   2,       -31.1,        -8.3
"Line.LN5926286-1"      ,   1,        33.0,         8.8,         0.0,         0.0,         0.0,         0.0
"Line.LN5926286-1"      ,   2,       -33.0,        -8.8
"Line.LN6318859-1"      ,   1,        -0.0,        -0.0,         0.0,         0.0,         0.0,         0.0
"Line.LN6318859-1"      ,   2,         0.0,         0.0
"Line.LN5926316-1"      ,   1,        34.0,         9.1,         0.0,         0.0,         0.0,         0.0
"Line.LN5926316-1"      ,   2,       -34.0,        -9.1
"Line.LN5591703-1"      ,   1,         5.0,         1.3,         0.0,         0.0,         0.0,         0.0
"Line.LN5591703-1"      ,   2,        -5.0,        -1.3
"Line.LN5531333-1"      ,   1,        36.1,         9.6,         0.0,         0.0,         0.0,         0.0
"Line.LN5531333-1"      ,   2,       -36.1,        -9.6
"Line.LN6047581-1"      ,   1,         2.4,         0.6,         0.0,         0.0,         0.0,         0.0
"Line.LN6047581-1"      ,   2,        -2.4,        -0.7
"Line.LN6349077-1"      ,   1,        -0.0,        -0.0,         0.0,         0.0,         0.0,         0.0
"Line.LN6349077-1"      ,   2,         0.0,         0.0
"Line.LN6350574-1"      ,   1,       141.9,        37.4,         0.0,         0.0,         0.0,         0.0
"Line.LN6350574-1"      ,   2,      -141.9,       -37.4
"Line.LN6320343-1"      ,   1,       131.2,        35.1,         0.0,         0.0,         0.0,         0.0
"Line.LN6320343-1"      ,   2,      -131.2,       -35.0
"Line.LN81048100-5"     ,   1,        45.9,        12.1,         0.0,         0.0,         0.0,         0.0
"Line.LN81048100-5"     ,   2,       -45.9,       -12.1
"Line.LN6348946-1"      ,   1,         2.9,         0.8,         0.0,         0.0,         0.0,         0.0
"Line.LN6348946-1"      ,   2,        -2.9,        -0.8
"Line.LN5744351-1"      ,   1,        10.3,         2.7,         0.0,         0.0,         0.0,         0.0
"Line.LN5744351-1"      ,   2,       -10.3,        -2.8
"Line.LN5472342-1"      ,   1,         5.8,         1.6,         0.0,         0.0,         0.0,         0.0
"Line.LN5472342-1"      ,   2,        -5.8,        -1.6
"Line.LN5621849-1"      ,   1,        26.8,         7.1,         0.0,         0.0,         0.0,         0.0
"Line.LN5621849-1"      ,   2,       -26.8,        -7.1
"Line.LN6379375-1"      ,   1,         5.6,         1.5,         0.0,         0.0,         0.0,         0.0
"Line.LN6379375-1"      ,   2,        -5.6,        -1.5
"Line.LN6028890-1"      ,   1,        36.4,         9.7,         0.0,         0.0,         0.0,         0.0
"Line.LN6028890-1"      ,   2,       -36.4,        -9.7
"Line.LN6380822-1"      ,   1,      1033.1,       277.0,         0.0,         0.0,         0.0,         0.0
"Line.LN6380822-1"      ,   2,     -1032.4,      -276.4
"Line.LN5835131-1"      ,   1,       543.4,       144.6,         0.0,         0.0,         0.0,         0.0
"Line.LN5835131-1"      ,   2,      -543.3,      -144.5
"Line.LN5803262-7"      ,   1,         4.1,         1.1,         0.0,         0.0,         0.0,         0.0
"Line.LN5803262-7"      ,   2,        -4.1,        -1.1
"Line.LN81048089-1"     ,   1,       104.3,        27.5,         0.0,         0.0,         0.0,         0.0
"Line.LN81048089-1"     ,   2,      -104.3,       -27.6
"Line.LN6201699-1"      ,   1,        14.4,         3.8,         0.0,         0.0,         0.0,         0.0
"Line.LN6201699-1"      ,   2,       -14.4,        -3.8
"Line.LN5746548-1"      ,   1,       622.3,       165.3,         0.0,         0.0,         0.0,         0.0
"Line.LN5746548-1"      ,   2,      -622.2,      -165.3
"Line.LN5835174-1"      ,   1,       253.7,        67.5,         0.0,         0.0,         0.0,         0.0
"Line.LN5835174-1"      ,   2,      -253.2,       -67.3
"Line.LN6505947-4"      ,   1,       126.7,        33.7,         0.0,         0.0,         0.0,         0.0
"Line.LN6505947-4"      ,   2,      -126.7,       -33.7
"Line.LN5683833-1"      ,   1,        88.4,        23.6,         0.0,         0.0,         0.0,         0.0
"Line.LN5683833-1"      ,   2,       -88.3,       -23.5
"Line.LN5561439-3"      ,   1,       204.1,        54.3,         0.0,         0.0,         0.0,         0.0
"Line.LN5561439-3"      ,   2,      -204.1,       -54.3
"Line.LN6109190-1"      ,   1,        31.5,         8.4,         0.0,         0.0,         0.0,         0.0
"Line.LN6109190-1"      ,   2,       -31.5,        -8.4
"Line.LN6258435-2"      ,   1,        19.7,         5.3,         0.0,         0.0,         0.0,         0.0
"Line.LN6258435-2"      ,   2,       -19.7,        -5.3
"Line.LN5804819-1"      ,   1,         1.7,         0.4,         0.0,         0.0,         0.0,         0.0
"Line.LN5804819-1"      ,   2,        -1.7,        -0.5
"Line.LN5593215-1"      ,   1,        59.4,        15.8,         0.0,         0.0,         0.0,         0.0
"Line.LN5593215-1"      ,   2,       -59.3,       -15.8
"Line.LN5833717-1"      ,   1,       689.0,       184.7,         0.0,         0.0,         0.0,         0.0
"Line.LN5833717-1"      ,   2,      -688.8,      -184.6
"Line.LN6199557-1"      ,   1,       684.7,       183.5,         0.0,         0.0,         0.0,         0.0
"Line.LN6199557-1"      ,   2,      -684.5,      -183.3
"Line.LN5744332-1"      ,   1,         6.2,         1.6,         0.0,         0.0,         0.0,         0.0
"Line.LN5744332-1"      ,   2,        -6.2,        -1.7
"Line.LN5558790-1"      ,   1,      5683.1,      1009.5,         0.0,         0.0,         0.0,         0.0
"Line.LN5558790-1"      ,   2,     -5682.4,     -1008.0
"Line.LN6078692-1"      ,   1,       218.5,        58.3,         0.0,         0.0,         0.0,         0.0
"Line.LN6078692-1"      ,   2,      -218.4,       -58.3
"Line.LN5956482-1"      ,   1,        97.4,        26.0,         0.0,         0.0,         0.0,         0.0
"Line.LN5956482-1"      ,   2,       -97.4,       -26.0
"Line.LN5593225-1"      ,   1,         2.6,         0.7,         0.0,         0.0,         0.0,         0.0
"Line.LN5593225-1"      ,   2,        -2.6,        -0.7
"Line.LN6900591-26"     ,   1,        79.2,        21.2,         0.0,         0.0,         0.0,         0.0
"Line.LN6900591-26"     ,   2,       -79.2,       -21.2
"Line.LN5952393-1"      ,   1,        10.4,         2.8,         0.0,         0.0,         0.0,         0.0
"Line.LN5952393-1"      ,   2,       -10.4,        -2.8
"Line.LN6350531-1"      ,   1,        10.3,         2.7,         0.0,         0.0,         0.0,         0.0
"Line.LN6350531-1"      ,   2,       -10.3,        -2.7
"Line.LN5965099-10"     ,   1,       301.0,        78.9,         0.0,         0.0,         0.0,         0.0
"Line.LN5965099-10"     ,   2,      -301.0,       -78.8
"Line.LN6047568-1"      ,   1,        61.7,        16.5,         0.0,         0.0,         0.0,         0.0
"Line.LN6047568-1"      ,   2,       -61.6,       -16.5
"Line.LN5926292-1"      ,   1,         4.6,         1.2,         0.0,         0.0,         0.0,         0.0
"Line.LN5926292-1"      ,   2,        -4.6,        -1.2
"Line.LN6380806-1"      ,   1,        25.4,         6.8,         0.0,         0.0,         0.0,         0.0
"Line.LN6380806-1"      ,   2,       -25.4,        -6.8
"Line.LN6341781-3"      ,   1,         9.6,         2.6,         0.0,         0.0,         0.0,         0.0
"Line.LN6341781-3"      ,   2,        -9.6,        -2.6
"Line.LN8979367-1"      ,   1,        14.6,         3.6,         0.0,         0.0,         0.0,         0.0
"Line.LN8979367-1"      ,   2,       -14.6,        -3.7
...