8500-Node/IEEE8500_EXP_VOLTAGES.csv
Bus, BasekV, Node1, Magnitude1, Angle1, pu1, Node2, Magnitude2, Angle2, pu2, Node3, Magnitude3, Angle3, pu3, Node4, Magnitude4, Angle4, pu4
"SOURCEBUS", 115, 1,    65539.1,   -0.8,    0.9871, 2,    65436.1, -120.0,   0.98555, 3,    66267.2,  119.7,   0.99807, 0, 0, 0, 0
"190-7361", 12.47, 1,    7433.37,  -41.3,    1.0325, 2,    4670.87, -173.5,   0.64877, 3,    7234.46,   82.4,    1.0048, 4,   0.287352,  -43.5, 0.000039912
"G_190-7361", 0.48, 1,    286.574,  -66.2,    1.0341, 2,    252.105,  163.4,   0.90971, 3,    227.913,   56.5,   0.82241, 0, 0, 0, 0
"_HVMV_SUB_LSB", 12.47, 1,    7501.68,  -36.7,     1.042, 2,     5427.4, -163.3,   0.75385, 3,    7310.38,   86.8,    1.0154, 0, 0, 0, 0
"HVMV_SUB_48332", 12.47, 1,    7501.68,  -36.7,     1.042, 2,    5427.39, -163.3,   0.75385, 3,    7310.38,   86.8,    1.0154, 0, 0, 0, 0
"M1009763", 12.47, 1,    7858.82,  -45.2,    1.0916, 2,    3795.09, -176.2,   0.52713, 3,    6761.86,   75.4,    0.9392, 0, 0, 0, 0
"L2673322", 12.47, 2,    3795.03, -176.2,   0.52712, 0, 0, 0, 0, 0, 0, 0, 0, 0, 0, 0, 0
"M1069148", 12.47, 3,    7167.93,   82.1,   0.99561, 0, 0, 0, 0, 0, 0, 0, 0, 0, 0, 0, 0
"L2673309", 12.47, 3,    7167.63,   82.1,   0.99557, 0, 0, 0, 0, 0, 0, 0, 0, 0, 0, 0, 0
"M1069588", 12.47, 2,     3815.4, -176.1,   0.52995, 0, 0, 0, 0, 0, 0, 0, 0, 0, 0, 0, 0
"L2804270", 12.47, 2,    3815.38, -176.1,   0.52995, 0, 0, 0, 0, 0, 0, 0, 0, 0, 0, 0, 0
"M3036164", 12.47, 2,    3717.48, -176.4,   0.51635, 0, 0, 0, 0, 0, 0, 0, 0, 0, 0, 0, 0
"L2935553", 12.47, 2,    3716.74, -176.4,   0.51625, 0, 0, 0, 0, 0, 0, 0, 0, 0, 0, 0, 0
"M1209749", 12.47, 1,          0,    0.0,         0, 2,   0.219759,  146.6, 0.000030524, 3,          0,    0.0,         0, 0, 0, 0, 0
"L2748840", 12.47, 2,          0,    0.0,         0, 0, 0, 0, 0, 0, 0, 0, 0, 0, 0, 0, 0
"M1108264", 12.47, 2,    4645.96, -173.6,   0.64531, 0, 0, 0, 0, 0, 0, 0, 0, 0, 0, 0, 0
"M1108263", 12.47, 2,    4645.66, -173.6,   0.64527, 0, 0, 0, 0, 0, 0, 0, 0, 0, 0, 0, 0
"L3085398", 12.47, 1,       7900,  -45.2,    1.0973, 2,    3815.45, -176.2,   0.52996, 3,    6781.81,   75.4,   0.94198, 0, 0, 0, 0
"M1026891", 12.47, 1,     7897.3,  -45.2,    1.0969, 2,     3812.2, -176.2,    0.5295, 3,    6779.59,   75.4,   0.94167, 0, 0, 0, 0
"L3216367", 12.47, 1,    7963.15,  -44.7,    1.1061, 2,    3776.08, -175.8,   0.52449, 3,    6724.16,   75.1,   0.93397, 0, 0, 0, 0
"M1069468", 12.47, 1,    7962.85,  -44.7,     1.106, 2,    3774.86, -175.8,   0.52432, 3,    6722.63,   75.1,   0.93376, 0, 0, 0, 0
"M1142800", 12.47, 2,    3810.44, -173.2,   0.52926, 0, 0, 0, 0, 0, 0, 0, 0, 0, 0, 0, 0
"M1142799", 12.47, 2,    3810.35, -173.2,   0.52925, 0, 0, 0, 0, 0, 0, 0, 0, 0, 0, 0, 0
"M1047592", 12.47, 1,    7997.24,  -44.6,    1.1108, 2,    3845.02, -176.0,   0.53406, 3,    6852.63,   75.6,   0.95181, 0, 0, 0, 0
"P827512", 12.47, 3,    6852.61,   75.6,   0.95181, 0, 0, 0, 0, 0, 0, 0, 0, 0, 0, 0, 0
"M1047339", 12.47, 1,    7247.34,  -42.2,    1.0066, 2,    4507.48, -174.7,   0.62608, 3,    7151.47,   81.5,   0.99332, 0, 0, 0, 0
"P895104", 12.47, 1,    7247.29,  -42.2,    1.0066, 0, 0, 0, 0, 0, 0, 0, 0, 0, 0, 0, 0
"M1026915", 12.47, 1,    7898.47,  -45.2,    1.0971, 2,    3816.67, -176.2,   0.53013, 3,    6780.85,   75.4,   0.94184, 0, 0, 0, 0
"M1026920", 12.47, 1,    7896.65,  -45.2,    1.0968, 2,    3816.19, -176.2,   0.53006, 3,     6779.5,   75.4,   0.94166, 0, 0, 0, 0
"N1138596", 12.47, 1,    7956.15,  -44.7,    1.1051, 0, 0, 0, 0, 0, 0, 0, 0, 0, 0, 0, 0
"L3254207", 12.47, 1,    7955.65,  -44.7,     1.105, 0, 0, 0, 0, 0, 0, 0, 0, 0, 0, 0, 0
"M1069464", 12.47, 1,    7962.46,  -44.7,     1.106, 2,    3772.64, -175.8,   0.52401, 3,    6719.96,   75.1,   0.93338, 0, 0, 0, 0
"P873787", 12.47, 2,    3772.63, -175.8,   0.52401, 0, 0, 0, 0, 0, 0, 0, 0, 0, 0, 0, 0
"N1144665", 12.47, 1,    8015.74,  -44.4,    1.1134, 2,    3846.53, -175.9,   0.53427, 3,    6856.87,   75.6,    0.9524, 0, 0, 0, 0
"M1047515", 12.47, 1,    8010.95,  -44.4,    1.1127, 2,    3844.65, -175.9,   0.53401, 3,    6851.04,   75.6,   0.95159, 0, 0, 0, 0
"N1137002", 12.47, 1,    7990.99,  -44.5,    1.1099, 0, 0, 0, 0, 0, 0, 0, 0, 0, 0, 0, 0
"M1047707", 12.47, 1,    7990.68,  -44.5,    1.1099, 0, 0, 0, 0, 0, 0, 0, 0, 0, 0, 0, 0
"L2729406", 12.47, 3,    7105.86,   80.0,   0.98699, 0, 0, 0, 0, 0, 0, 0, 0, 0, 0, 0, 0
"L2897768", 12.47, 3,    7105.32,   80.0,   0.98691, 0, 0, 0, 0, 0, 0, 0, 0, 0, 0, 0, 0
"L3649301", 12.47, 1,    7969.27,  -44.8,    1.1069, 0, 0, 0, 0, 0, 0, 0, 0, 0, 0, 0, 0
"L3649302", 12.47, 1,    7968.89,  -44.8,    1.1069, 0, 0, 0, 0, 0, 0, 0, 0, 0, 0, 0, 0
"L2970842", 12.47, 2,    4662.59, -173.6,   0.64762, 0, 0, 0, 0, 0, 0, 0, 0, 0, 0, 0, 0
"M1089113", 12.47, 2,    4661.54, -173.6,   0.64748, 0, 0, 0, 0, 0, 0, 0, 0, 0, 0, 0, 0
"M1047312", 12.47, 1,    7216.28,  -42.2,    1.0023, 2,    4485.18, -174.7,   0.62298, 3,    7137.91,   81.5,   0.99144, 0, 0, 0, 0
"P893163", 12.47, 1,    7216.21,  -42.2,    1.0023, 0, 0, 0, 0, 0, 0, 0, 0, 0, 0, 0, 0
"L2822871", 12.47, 1,    7924.37,  -45.0,    1.1007, 2,    3832.92, -176.1,   0.53238, 3,     6804.9,   75.5,   0.94518, 0, 0, 0, 0
"M1026872", 12.47, 1,    7922.33,  -45.0,    1.1004, 2,    3831.65, -176.1,   0.53221, 3,    6802.88,   75.5,    0.9449, 0, 0, 0, 0
"M1026312", 12.47, 2,    4389.45, -174.9,   0.60968, 0, 0, 0, 0, 0, 0, 0, 0, 0, 0, 0, 0
"L2973163", 12.47, 2,    4387.72, -175.0,   0.60944, 0, 0, 0, 0, 0, 0, 0, 0, 0, 0, 0, 0
"L3728038", 12.47, 1,    7957.25,  -44.6,    1.1052, 0, 0, 0, 0, 0, 0, 0, 0, 0, 0, 0, 0
"L3728039", 12.47, 1,    7956.73,  -44.6,    1.1052, 0, 0, 0, 0, 0, 0, 0, 0, 0, 0, 0, 0
"M1069567", 12.47, 2,    3822.27, -176.1,    0.5309, 0, 0, 0, 0, 0, 0, 0, 0, 0, 0, 0, 0
"M1069582", 12.47, 2,    3817.43, -176.1,   0.53023, 0, 0, 0, 0, 0, 0, 0, 0, 0, 0, 0, 0
"N1140830", 12.47, 1,    7828.04,  -44.8,    1.0873, 0, 0, 0, 0, 0, 0, 0, 0, 0, 0, 0, 0
"L3216351", 12.47, 1,    7827.96,  -44.8,    1.0873, 0, 0, 0, 0, 0, 0, 0, 0, 0, 0, 0, 0
"L2952007", 12.47, 3,    7356.01,   83.6,    1.0217, 0, 0, 0, 0, 0, 0, 0, 0, 0, 0, 0, 0
"L2861158", 12.47, 3,    7355.67,   83.6,    1.0217, 0, 0, 0, 0, 0, 0, 0, 0, 0, 0, 0, 0
"N1140827", 12.47, 1,    7833.04,  -44.8,     1.088, 2,    3832.27, -175.5,   0.53229, 3,    6698.21,   75.7,   0.93036, 0, 0, 0, 0
"M1026726", 12.47, 1,    7832.98,  -44.8,     1.088, 2,     3832.2, -175.5,   0.53228, 3,    6698.11,   75.7,   0.93035, 0, 0, 0, 0
"L2730106", 12.47, 1,    7233.03,  -40.0,    1.0046, 2,    3673.24, -174.9,    0.5102, 3,     7259.5,   78.2,    1.0083, 0, 0, 0, 0
"N1142099", 12.47, 1,    7231.52,  -40.0,    1.0044, 2,    3672.98, -174.9,   0.51017, 3,    7257.75,   78.2,    1.0081, 0, 0, 0, 0
"M1026658", 12.47, 1,    7826.65,  -44.8,    1.0871, 2,    3832.99, -175.4,   0.53239, 3,    6682.48,   75.7,   0.92818, 0, 0, 0, 0
"L3172805", 12.47, 1,    7826.48,  -44.8,    1.0871, 0, 0, 0, 0, 0, 0, 0, 0, 0, 0, 0, 0
"P895112", 12.47, 1,     7412.7,  -37.0,    1.0296, 0, 0, 0, 0, 0, 0, 0, 0, 0, 0, 0, 0
"L3048962", 12.47, 1,    7412.63,  -37.0,    1.0296, 0, 0, 0, 0, 0, 0, 0, 0, 0, 0, 0, 0
"L2991914", 12.47, 1,     7968.1,  -44.5,    1.1067, 2,    3832.22, -175.8,   0.53229, 3,     6803.6,   75.6,     0.945, 0, 0, 0, 0
"M1047503", 12.47, 1,    7964.66,  -44.5,    1.1063, 2,    3832.25, -175.8,   0.53229, 3,    6800.91,   75.6,   0.94463, 0, 0, 0, 0
"M1047751", 12.47, 1,    7958.17,  -44.4,    1.1054, 0, 0, 0, 0, 0, 0, 0, 0, 0, 0, 0, 0
"L2973154", 12.47, 1,    7958.13,  -44.4,    1.1054, 0, 0, 0, 0, 0, 0, 0, 0, 0, 0, 0, 0
"L3010565", 12.47, 3,    7164.65,   82.1,   0.99515, 0, 0, 0, 0, 0, 0, 0, 0, 0, 0, 0, 0
"L2897775", 12.47, 3,    7164.38,   82.1,   0.99511, 0, 0, 0, 0, 0, 0, 0, 0, 0, 0, 0, 0
"M1125955", 12.47, 3,    7373.84,   79.0,    1.0242, 0, 0, 0, 0, 0, 0, 0, 0, 0, 0, 0, 0
"M1125957", 12.47, 3,    7373.82,   79.0,    1.0242, 0, 0, 0, 0, 0, 0, 0, 0, 0, 0, 0, 0
"M1069640", 12.47, 2,    3802.92, -176.2,   0.52822, 0, 0, 0, 0, 0, 0, 0, 0, 0, 0, 0, 0
"L2804269", 12.47, 2,    3802.52, -176.2,   0.52816, 0, 0, 0, 0, 0, 0, 0, 0, 0, 0, 0, 0
"M1026702", 12.47, 1,    7854.95,  -44.7,     1.091, 2,    3833.37, -175.6,   0.53245, 3,     6719.9,   75.7,   0.93338, 0, 0, 0, 0
"N1139551", 12.47, 1,    7844.44,  -44.7,    1.0896, 2,    3833.71, -175.5,   0.53249, 3,     6712.4,   75.7,   0.93233, 0, 0, 0, 0
"N1136355", 12.47, 2,    3843.93, -176.0,   0.53391, 0, 0, 0, 0, 0, 0, 0, 0, 0, 0, 0, 0
"L2783231", 12.47, 2,    3840.02, -176.0,   0.53337, 0, 0, 0, 0, 0, 0, 0, 0, 0, 0, 0, 0
"L2748143", 12.47, 1,    7808.13,  -42.8,    1.0845, 0, 0, 0, 0, 0, 0, 0, 0, 0, 0, 0, 0
"L3251854", 12.47, 1,    7808.02,  -42.8,    1.0845, 0, 0, 0, 0, 0, 0, 0, 0, 0, 0, 0, 0
"M1069610", 12.47, 2,    3808.75, -176.1,   0.52903, 0, 0, 0, 0, 0, 0, 0, 0, 0, 0, 0, 0
"M1069600", 12.47, 2,    3808.69, -176.1,   0.52902, 0, 0, 0, 0, 0, 0, 0, 0, 0, 0, 0, 0
"M1069424", 12.47, 1,    7959.34,  -44.7,    1.1055, 2,    3755.73, -175.8,   0.52166, 3,    6699.39,   74.9,   0.93053, 0, 0, 0, 0
"L2935549", 12.47, 1,    7958.92,  -44.7,    1.1055, 2,    3753.44, -175.8,   0.52134, 3,    6696.78,   74.9,   0.93017, 0, 0, 0, 0
"P895089", 12.47, 3,    7202.35,   76.9,    1.0004, 0, 0, 0, 0, 0, 0, 0, 0, 0, 0, 0, 0
"L3235242", 12.47, 3,    7202.12,   76.9,    1.0004, 0, 0, 0, 0, 0, 0, 0, 0, 0, 0, 0, 0
"M1026795", 12.47, 1,     7931.7,  -44.6,    1.1017, 2,    3832.86, -175.7,   0.53237, 3,    6775.15,   75.6,   0.94105, 0, 0, 0, 0
"N1140522", 12.47, 3,    6775.12,   75.6,   0.94105, 0, 0, 0, 0, 0, 0, 0, 0, 0, 0, 0, 0
"L3030199", 12.47, 1,    7404.44,  -37.6,    1.0285, 2,    3837.14, -173.0,   0.53297, 3,    7373.48,   80.1,    1.0242, 0, 0, 0, 0
"M1125934", 12.47, 1,    7403.43,  -37.7,    1.0283, 2,    3840.87, -172.9,   0.53349, 3,    7370.12,   80.1,    1.0237, 0, 0, 0, 0
"M1069189", 12.47, 1,     7384.2,  -41.6,    1.0256, 2,    4625.47, -173.8,   0.64247, 3,    7182.63,   82.1,   0.99765, 0, 0, 0, 0
"L2860487", 12.47, 3,    7182.49,   82.1,   0.99763, 0, 0, 0, 0, 0, 0, 0, 0, 0, 0, 0, 0
"221-312488", 12.47, 1,    7248.57,  -39.3,    1.0068, 2,    3665.26, -174.8,    0.5091, 3,    7285.92,   78.5,     1.012, 0, 0, 0, 0
"M1089183", 12.47, 1,    7248.56,  -39.3,    1.0068, 2,    3665.26, -174.8,    0.5091, 3,    7285.91,   78.5,     1.012, 0, 0, 0, 0
"M1108464", 12.47, 2,    3664.13, -174.8,   0.50894, 0, 0, 0, 0, 0, 0, 0, 0, 0, 0, 0, 0
"L3102286", 12.47, 2,    3663.89, -174.8,   0.50891, 0, 0, 0, 0, 0, 0, 0, 0, 0, 0, 0, 0
"F739845", 12.47, 1,    7201.29,  -42.2,    1.0002, 2,    4468.14, -174.7,   0.62061, 3,    7129.38,   81.5,   0.99025, 0, 0, 0, 0
"293471", 12.47, 1,    7201.23,  -42.2,    1.0002, 2,    4468.09, -174.7,   0.62061, 3,     7129.3,   81.5,   0.99024, 0, 0, 0, 0
"P827499", 12.47, 1,    7958.46,  -44.7,    1.1054, 0, 0, 0, 0, 0, 0, 0, 0, 0, 0, 0, 0
"N1139254", 12.47, 1,    7958.44,  -44.7,    1.1054, 0, 0, 0, 0, 0, 0, 0, 0, 0, 0, 0, 0
"M1026657", 12.47, 1,    7822.37,  -44.8,    1.0865, 0, 0, 0, 0, 0, 0, 0, 0, 0, 0, 0, 0
"M1026656", 12.47, 1,    7822.16,  -44.8,    1.0865, 0, 0, 0, 0, 0, 0, 0, 0, 0, 0, 0, 0
"M1108299", 12.47, 2,    3993.83, -171.8,   0.55473, 0, 0, 0, 0, 0, 0, 0, 0, 0, 0, 0, 0
"M1108300", 12.47, 2,    3993.82, -171.8,   0.55473, 0, 0, 0, 0, 0, 0, 0, 0, 0, 0, 0, 0
"L3198355", 12.47, 2,     3993.6, -171.8,    0.5547, 0, 0, 0, 0, 0, 0, 0, 0, 0, 0, 0, 0
"L2805037", 12.47, 2,     3993.6, -171.8,    0.5547, 0, 0, 0, 0, 0, 0, 0, 0, 0, 0, 0, 0
"N1137994", 12.47, 3,    6735.51,   75.2,   0.93555, 0, 0, 0, 0, 0, 0, 0, 0, 0, 0, 0, 0
"M1069484", 12.47, 3,    6733.89,   75.2,   0.93532, 0, 0, 0, 0, 0, 0, 0, 0, 0, 0, 0, 0
"L2860504", 12.47, 1,    7828.98,  -44.8,    1.0874, 0, 0, 0, 0, 0, 0, 0, 0, 0, 0, 0, 0
"L2860493", 12.47, 1,     7828.3,  -44.8,    1.0873, 0, 0, 0, 0, 0, 0, 0, 0, 0, 0, 0, 0
"M1026783", 12.47, 1,    7921.52,  -44.6,    1.1003, 2,    3833.02, -175.7,    0.5324, 3,    6768.14,   75.6,   0.94008, 0, 0, 0, 0
"M1026780", 12.47, 1,     7919.9,  -44.6,    1.1001, 2,    3833.04, -175.7,    0.5324, 3,    6767.01,   75.6,   0.93992, 0, 0, 0, 0
"P895111", 12.47, 3,    7430.59,   79.4,    1.0321, 0, 0, 0, 0, 0, 0, 0, 0, 0, 0, 0, 0
"L2895496", 12.47, 3,    7430.25,   79.4,     1.032, 0, 0, 0, 0, 0, 0, 0, 0, 0, 0, 0, 0
"N1140819", 12.47, 1,    7837.01,  -44.8,    1.0885, 2,    3832.74, -175.5,   0.53236, 3,    6703.35,   75.7,   0.93108, 0, 0, 0, 0
"M1026700", 12.47, 1,    7835.96,  -44.8,    1.0884, 2,    3832.56, -175.5,   0.53233, 3,    6701.89,   75.7,   0.93087, 0, 0, 0, 0
"M1089173", 12.47, 3,    7108.71,   80.0,   0.98738, 0, 0, 0, 0, 0, 0, 0, 0, 0, 0, 0, 0
"L2935551", 12.47, 3,     7107.7,   80.0,   0.98724, 0, 0, 0, 0, 0, 0, 0, 0, 0, 0, 0, 0
"M1026344", 12.47, 1,    7160.32,  -42.2,   0.99455, 0, 0, 0, 0, 0, 0, 0, 0, 0, 0, 0, 0
"M1026364", 12.47, 1,    7160.02,  -42.2,   0.99451, 0, 0, 0, 0, 0, 0, 0, 0, 0, 0, 0, 0
"L2879070", 12.47, 1,    7986.89,  -44.7,    1.1094, 2,    3844.42, -176.0,   0.53398, 3,    6846.11,   75.6,   0.95091, 0, 0, 0, 0
"L3216345", 12.47, 1,    7979.83,  -44.7,    1.1084, 2,    3844.19, -176.0,   0.53395, 3,    6842.22,   75.6,   0.95037, 0, 0, 0, 0
"M1069428", 12.47, 1,    7959.87,  -44.7,    1.1056, 2,    3757.64, -175.8,   0.52193, 3,    6701.68,   74.9,   0.93085, 0, 0, 0, 0
"N1139257", 12.47, 2,    3757.61, -175.8,   0.52192, 0, 0, 0, 0, 0, 0, 0, 0, 0, 0, 0, 0
"L2991919", 12.47, 1,    7156.27,  -42.2,   0.99399, 0, 0, 0, 0, 0, 0, 0, 0, 0, 0, 0, 0
"M1026361", 12.47, 1,    7153.72,  -42.2,   0.99363, 0, 0, 0, 0, 0, 0, 0, 0, 0, 0, 0, 0
"N1147857", 12.47, 1,    7858.73,  -45.2,    1.0916, 0, 0, 0, 0, 0, 0, 0, 0, 0, 0, 0, 0
"M1009742", 12.47, 1,    7857.06,  -45.2,    1.0913, 0, 0, 0, 0, 0, 0, 0, 0, 0, 0, 0, 0
"Q14412", 12.47, 1,    7238.93,  -42.2,    1.0055, 2,    4501.63, -174.7,   0.62526, 3,    7148.02,   81.5,   0.99284, 0, 0, 0, 0
"M1047325", 12.47, 1,    7236.54,  -42.2,    1.0051, 2,    4500.01, -174.7,   0.62504, 3,    7147.02,   81.5,    0.9927, 0, 0, 0, 0
"N1139263", 12.47, 1,    7962.77,  -44.7,     1.106, 0, 0, 0, 0, 0, 0, 0, 0, 0, 0, 0, 0
"L3048227", 12.47, 1,    7962.71,  -44.7,     1.106, 0, 0, 0, 0, 0, 0, 0, 0, 0, 0, 0, 0
"P827506", 12.47, 1,    7962.82,  -44.7,     1.106, 0, 0, 0, 0, 0, 0, 0, 0, 0, 0, 0, 0
"M1069469", 12.47, 1,    7962.79,  -44.7,     1.106, 0, 0, 0, 0, 0, 0, 0, 0, 0, 0, 0, 0
"M1027019", 12.47, 2,    3798.33, -176.0,   0.52758, 0, 0, 0, 0, 0, 0, 0, 0, 0, 0, 0, 0
"L2785522", 12.47, 2,    3798.27, -176.0,   0.52757, 0, 0, 0, 0, 0, 0, 0, 0, 0, 0, 0, 0
"L3216338", 12.47, 2,     3766.3, -176.3,   0.52313, 0, 0, 0, 0, 0, 0, 0, 0, 0, 0, 0, 0
"L2973146", 12.47, 2,    3766.24, -176.3,   0.52312, 0, 0, 0, 0, 0, 0, 0, 0, 0, 0, 0, 0
"M3037452", 12.47, 1,    7146.25,  -42.2,    0.9926, 0, 0, 0, 0, 0, 0, 0, 0, 0, 0, 0, 0
"L2973164", 12.47, 1,    7146.18,  -42.2,   0.99259, 0, 0, 0, 0, 0, 0, 0, 0, 0, 0, 0, 0
"L3120376", 12.47, 1,    7930.76,  -45.0,    1.1016, 0, 0, 0, 0, 0, 0, 0, 0, 0, 0, 0, 0
"M1026925", 12.47, 1,    7929.08,  -45.0,    1.1013, 0, 0, 0, 0, 0, 0, 0, 0, 0, 0, 0, 0
"M1047612", 12.47, 3,    6860.61,   75.6,   0.95292, 0, 0, 0, 0, 0, 0, 0, 0, 0, 0, 0, 0
"P828360", 12.47, 3,    6860.58,   75.6,   0.95292, 0, 0, 0, 0, 0, 0, 0, 0, 0, 0, 0, 0
"M1089195", 12.47, 3,    7201.85,   76.9,    1.0003, 0, 0, 0, 0, 0, 0, 0, 0, 0, 0, 0, 0
"L3141393", 12.47, 3,    7201.63,   76.9,    1.0003, 0, 0, 0, 0, 0, 0, 0, 0, 0, 0, 0, 0
"M1026946", 12.47, 2,    3806.36, -176.1,   0.52869, 0, 0, 0, 0, 0, 0, 0, 0, 0, 0, 0, 0
"M1026940", 12.47, 2,    3806.07, -176.1,   0.52865, 0, 0, 0, 0, 0, 0, 0, 0, 0, 0, 0, 0
"M1047471", 12.47, 2,    3682.72, -176.0,   0.51152, 0, 0, 0, 0, 0, 0, 0, 0, 0, 0, 0, 0
"L3216349", 12.47, 2,    3682.71, -176.0,   0.51152, 0, 0, 0, 0, 0, 0, 0, 0, 0, 0, 0, 0
"M1047401", 12.47, 1,    7774.51,  -44.9,    1.0799, 0, 0, 0, 0, 0, 0, 0, 0, 0, 0, 0, 0
"L2748132", 12.47, 1,    7774.43,  -44.9,    1.0798, 0, 0, 0, 0, 0, 0, 0, 0, 0, 0, 0, 0
"L3122820", 12.47, 1,    7802.55,  -44.8,    1.0838, 0, 0, 0, 0, 0, 0, 0, 0, 0, 0, 0, 0
"L3141398", 12.47, 1,    7802.49,  -44.8,    1.0837, 0, 0, 0, 0, 0, 0, 0, 0, 0, 0, 0, 0
"M1108360", 12.47, 3,    7183.73,   80.2,    0.9978, 0, 0, 0, 0, 0, 0, 0, 0, 0, 0, 0, 0
"L3048968", 12.47, 3,     7183.5,   80.2,   0.99777, 0, 0, 0, 0, 0, 0, 0, 0, 0, 0, 0, 0
"L2801950", 12.47, 3,    7144.39,   82.1,   0.99234, 0, 0, 0, 0, 0, 0, 0, 0, 0, 0, 0, 0
"M1069224", 12.47, 3,    7143.71,   82.1,   0.99224, 0, 0, 0, 0, 0, 0, 0, 0, 0, 0, 0, 0
"L2766746", 12.47, 3,     6685.7,   75.3,   0.92863, 0, 0, 0, 0, 0, 0, 0, 0, 0, 0, 0, 0
"M1027073", 12.47, 3,    6683.38,   75.2,    0.9283, 0, 0, 0, 0, 0, 0, 0, 0, 0, 0, 0, 0
"M1142873", 12.47, 3,       7430,   79.4,     1.032, 0, 0, 0, 0, 0, 0, 0, 0, 0, 0, 0, 0
"M1069181", 12.47, 1,    7346.67,  -41.7,    1.0204, 0, 0, 0, 0, 0, 0, 0, 0, 0, 0, 0, 0
"L2973151", 12.47, 1,    7345.05,  -41.7,    1.0202, 0, 0, 0, 0, 0, 0, 0, 0, 0, 0, 0, 0
"L3179682", 12.47, 3,    7267.48,   80.4,    1.0094, 0, 0, 0, 0, 0, 0, 0, 0, 0, 0, 0, 0
"L2786274", 12.47, 3,    7267.41,   80.4,    1.0094, 0, 0, 0, 0, 0, 0, 0, 0, 0, 0, 0, 0
"L3066816", 12.47, 1,    7827.09,  -44.8,    1.0872, 0, 0, 0, 0, 0, 0, 0, 0, 0, 0, 0, 0
"M1026667", 12.47, 1,     7826.7,  -44.8,    1.0871, 0, 0, 0, 0, 0, 0, 0, 0, 0, 0, 0, 0
"M1108529", 12.47, 1,    7905.82,  -40.9,    1.0981, 2,    3890.56, -175.2,   0.54039, 3,    7292.39,   77.7,    1.0129, 0, 0, 0, 0
"M1108532", 12.47, 1,    7904.57,  -40.9,    1.0979, 2,    3890.07, -175.2,   0.54032, 3,    7290.73,   77.7,    1.0127, 0, 0, 0, 0
"L2766723", 12.47, 1,    7828.08,  -44.8,    1.0873, 0, 0, 0, 0, 0, 0, 0, 0, 0, 0, 0, 0
"L3122822", 12.47, 1,    7827.95,  -44.8,    1.0873, 0, 0, 0, 0, 0, 0, 0, 0, 0, 0, 0, 0
"L2673312", 12.47, 1,    7848.29,  -45.2,    1.0901, 0, 0, 0, 0, 0, 0, 0, 0, 0, 0, 0, 0
"L3235247", 12.47, 1,    7848.13,  -45.2,    1.0901, 0, 0, 0, 0, 0, 0, 0, 0, 0, 0, 0, 0
"M1166391", 12.47, 3,    7370.82,   83.6,    1.0238, 0, 0, 0, 0, 0, 0, 0, 0, 0, 0, 0, 0
"L3254873", 12.47, 3,     7366.8,   83.6,    1.0232, 0, 0, 0, 0, 0, 0, 0, 0, 0, 0, 0, 0
"L2861157", 12.47, 3,    7410.14,   83.7,    1.0292, 0, 0, 0, 0, 0, 0, 0, 0, 0, 0, 0, 0
"P901951", 12.47, 3,    7406.43,   83.7,    1.0287, 0, 0, 0, 0, 0, 0, 0, 0, 0, 0, 0, 0
"M1047346", 12.47, 1,    7260.44,  -42.2,    1.0085, 2,    4515.43, -174.6,   0.62718, 3,    7156.36,   81.5,     0.994, 0, 0, 0, 0
"M1047345", 12.47, 1,    7256.94,  -42.2,     1.008, 2,    4513.46, -174.6,   0.62691, 3,     7155.1,   81.5,   0.99383, 0, 0, 0, 0
"L2989596", 12.47, 2,     3827.2, -176.1,   0.53159, 0, 0, 0, 0, 0, 0, 0, 0, 0, 0, 0, 0
"L2822873", 12.47, 2,    3827.15, -176.1,   0.53158, 0, 0, 0, 0, 0, 0, 0, 0, 0, 0, 0, 0
"M1108328", 12.47, 3,    7243.34,   80.3,    1.0061, 0, 0, 0, 0, 0, 0, 0, 0, 0, 0, 0, 0
"L2875754", 12.47, 3,    7243.25,   80.3,    1.0061, 0, 0, 0, 0, 0, 0, 0, 0, 0, 0, 0, 0
"L2786204", 12.47, 3,    7472.49,   83.9,    1.0379, 0, 0, 0, 0, 0, 0, 0, 0, 0, 0, 0, 0
"M1209819", 12.47, 3,    7468.22,   83.9,    1.0373, 0, 0, 0, 0, 0, 0, 0, 0, 0, 0, 0, 0
"P901972", 12.47, 1,     7856.7,  -45.2,    1.0913, 0, 0, 0, 0, 0, 0, 0, 0, 0, 0, 0, 0
"M1009726", 12.47, 1,    7854.02,  -45.2,    1.0909, 0, 0, 0, 0, 0, 0, 0, 0, 0, 0, 0, 0
"M1047702", 12.47, 1,    7991.05,  -44.5,    1.1099, 0, 0, 0, 0, 0, 0, 0, 0, 0, 0, 0, 0
"N1137001", 12.47, 1,    7991.01,  -44.5,    1.1099, 0, 0, 0, 0, 0, 0, 0, 0, 0, 0, 0, 0
"L2767340", 12.47, 1,    7289.94,  -39.0,    1.0126, 2,    3681.22, -174.7,   0.51131, 3,    7321.07,   78.6,    1.0169, 0, 0, 0, 0
"M3037449", 12.47, 1,    7289.94,  -39.0,    1.0126, 2,    3681.22, -174.7,   0.51131, 3,    7321.07,   78.6,    1.0169, 0, 0, 0, 0
"M1047457", 12.47, 2,    3686.65, -176.0,   0.51207, 0, 0, 0, 0, 0, 0, 0, 0, 0, 0, 0, 0
"L2710546", 12.47, 2,     3686.2, -176.0,     0.512, 0, 0, 0, 0, 0, 0, 0, 0, 0, 0, 0, 0
"L2674027", 12.47, 1,    7196.67,  -40.7,    0.9996, 2,    3665.22, -175.1,   0.50909, 3,    7215.45,   77.8,    1.0022, 0, 0, 0, 0
"L2692633", 12.47, 1,    7192.79,  -40.8,   0.99906, 2,    3664.05, -175.1,   0.50893, 3,    7210.34,   77.8,    1.0015, 0, 0, 0, 0
"N1142108", 12.47, 1,    7380.38,  -38.4,    1.0251, 0, 0, 0, 0, 0, 0, 0, 0, 0, 0, 0, 0
"L2674051", 12.47, 1,     7380.3,  -38.4,    1.0251, 0, 0, 0, 0, 0, 0, 0, 0, 0, 0, 0, 0
"M1069135", 12.47, 1,    7282.93,  -42.1,    1.0116, 2,    4528.85, -174.6,   0.62905, 3,    7165.68,   81.5,   0.99529, 0, 0, 0, 0
"R18242", 12.47, 1,    7278.59,  -42.2,     1.011, 2,    4525.96, -174.6,   0.62864, 3,    7164.63,   81.4,   0.99515, 0, 0, 0, 0
"M1047534", 12.47, 1,    8085.91,  -44.1,    1.1231, 2,    3873.78, -176.0,   0.53806, 3,    6940.04,   75.8,   0.96395, 0, 0, 0, 0
"N1136663", 12.47, 1,    8068.49,  -44.2,    1.1207, 2,    3867.18, -176.0,   0.53714, 3,    6920.12,   75.7,   0.96119, 0, 0, 0, 0
"M1108508", 12.47, 3,    7254.96,   77.4,    1.0077, 0, 0, 0, 0, 0, 0, 0, 0, 0, 0, 0, 0
"L3097861", 12.47, 3,    7254.89,   77.4,    1.0077, 0, 0, 0, 0, 0, 0, 0, 0, 0, 0, 0, 0
"M1069560", 12.47, 2,    3825.07, -176.1,   0.53129, 0, 0, 0, 0, 0, 0, 0, 0, 0, 0, 0, 0
"L2973153", 12.47, 1,     7999.9,  -44.5,    1.1112, 2,    3817.35, -176.1,   0.53022, 3,     6860.2,   75.6,   0.95286, 0, 0, 0, 0
"N1136998", 12.47, 1,    7999.45,  -44.5,    1.1111, 2,    3816.74, -176.1,   0.53014, 3,    6860.16,   75.6,   0.95286, 0, 0, 0, 0
"L2898515", 12.47, 3,    7660.86,   80.2,    1.0641, 0, 0, 0, 0, 0, 0, 0, 0, 0, 0, 0, 0
"M1166387", 12.47, 3,    7660.68,   80.2,     1.064, 0, 0, 0, 0, 0, 0, 0, 0, 0, 0, 0, 0
"M1047442", 12.47, 2,    3701.63, -175.9,   0.51415, 0, 0, 0, 0, 0, 0, 0, 0, 0, 0, 0, 0
"L3235250", 12.47, 2,    3701.59, -175.9,   0.51414, 0, 0, 0, 0, 0, 0, 0, 0, 0, 0, 0, 0
"M1142871", 12.47, 1,    7394.49,  -37.3,    1.0271, 2,     3701.3, -174.2,    0.5141, 3,    7434.29,   79.4,    1.0326, 0, 0, 0, 0
"M1142874", 12.47, 1,    7391.28,  -37.3,    1.0266, 2,     3700.6, -174.2,     0.514, 3,    7430.63,   79.4,    1.0321, 0, 0, 0, 0
"L2955081", 12.47, 1,    7376.79,  -38.6,    1.0246, 2,    3944.87, -172.1,   0.54793, 3,    7278.47,   80.3,     1.011, 0, 0, 0, 0
"M1108315", 12.47, 1,     7373.9,  -38.7,    1.0242, 2,     3957.2, -172.0,   0.54965, 3,    7267.71,   80.4,    1.0095, 0, 0, 0, 0
"L2973162", 12.47, 1,    7160.75,  -42.2,   0.99461, 2,    4426.31, -174.8,    0.6148, 3,    7129.13,   81.5,   0.99022, 0, 0, 0, 0
"M1026333", 12.47, 1,    7160.41,  -42.2,   0.99456, 2,     4423.9, -174.8,   0.61447, 3,    7129.63,   81.5,   0.99029, 0, 0, 0, 0
"M1009832", 12.47, 2,    3770.72, -176.3,   0.52374, 0, 0, 0, 0, 0, 0, 0, 0, 0, 0, 0, 0
"L2860479", 12.47, 2,     3770.7, -176.3,   0.52374, 0, 0, 0, 0, 0, 0, 0, 0, 0, 0, 0, 0
"M1026854", 12.47, 1,    7945.79,  -44.9,    1.1036, 2,    3840.91, -176.0,   0.53349, 3,    6821.74,   75.5,   0.94752, 0, 0, 0, 0
"P901894", 12.47, 1,    7945.58,  -44.9,    1.1036, 0, 0, 0, 0, 0, 0, 0, 0, 0, 0, 0, 0
"M1026485", 12.47, 2,    4484.14, -174.8,   0.62284, 0, 0, 0, 0, 0, 0, 0, 0, 0, 0, 0, 0
"M1026492", 12.47, 2,    4483.98, -174.8,   0.62281, 0, 0, 0, 0, 0, 0, 0, 0, 0, 0, 0, 0
"D6413567-3_INT", 12.47, 1,    7367.36,  -41.6,    1.0233, 2,    4614.62, -173.9,   0.64096, 3,    7179.18,   82.0,   0.99717, 0, 0, 0, 0
"E182724", 12.47, 1,    7367.31,  -41.6,    1.0233, 2,    4614.57, -173.9,   0.64095, 3,    7179.18,   82.0,   0.99717, 0, 0, 0, 0
"N1139541", 12.47, 1,    7369.09,  -41.6,    1.0235, 2,    4615.73, -173.9,   0.64111, 3,    7179.52,   82.0,   0.99722, 0, 0, 0, 0
"M4122658", 12.47, 1,    7245.27,  -39.7,    1.0063, 2,    3675.36, -174.9,    0.5105, 3,    7273.85,   78.3,    1.0103, 0, 0, 0, 0
"L2933135", 12.47, 1,    7245.16,  -39.7,    1.0063, 2,    3675.34, -174.9,    0.5105, 3,    7273.72,   78.3,    1.0103, 0, 0, 0, 0
"L2729414", 12.47, 1,     7854.9,  -44.7,     1.091, 2,    3833.32, -175.6,   0.53244, 3,     6719.8,   75.7,   0.93336, 0, 0, 0, 0
"L2729430", 12.47, 2,    3790.21, -176.2,   0.52645, 0, 0, 0, 0, 0, 0, 0, 0, 0, 0, 0, 0
"L2766742", 12.47, 2,    3786.53, -176.2,   0.52594, 0, 0, 0, 0, 0, 0, 0, 0, 0, 0, 0, 0
"M1026972", 12.47, 2,    3718.47, -176.4,   0.51649, 0, 0, 0, 0, 0, 0, 0, 0, 0, 0, 0, 0
"L2860483", 12.47, 2,    3718.35, -176.4,   0.51647, 0, 0, 0, 0, 0, 0, 0, 0, 0, 0, 0, 0
"L2860490", 12.47, 1,    7269.33,  -42.2,    1.0097, 2,     4520.7, -174.6,   0.62791, 3,     7160.4,   81.4,   0.99456, 0, 0, 0, 0
"L3104134", 12.47, 1,    7264.15,  -42.2,     1.009, 2,     4517.6, -174.6,   0.62748, 3,    7157.96,   81.4,   0.99422, 0, 0, 0, 0
"M1089144", 12.47, 1,    7154.65,  -40.4,   0.99376, 0, 0, 0, 0, 0, 0, 0, 0, 0, 0, 0, 0
"P827522", 12.47, 1,    7154.64,  -40.4,   0.99376, 0, 0, 0, 0, 0, 0, 0, 0, 0, 0, 0, 0
"M1089118", 12.47, 1,    7420.03,  -41.4,    1.0306, 2,    4656.83, -173.6,   0.64682, 3,    7216.71,   82.3,    1.0024, 0, 0, 0, 0
"L3048208", 12.47, 1,    7419.97,  -41.4,    1.0306, 0, 0, 0, 0, 0, 0, 0, 0, 0, 0, 0, 0
"M1108505", 12.47, 1,    7207.07,  -40.5,     1.001, 2,     3668.4, -175.1,   0.50953, 3,    7228.93,   78.0,    1.0041, 0, 0, 0, 0
"L2955047", 12.47, 1,    7203.88,  -40.5,    1.0006, 2,    3667.44, -175.1,    0.5094, 3,    7224.83,   77.9,    1.0035, 0, 0, 0, 0
"M1089148", 12.47, 1,    7151.77,  -40.4,   0.99336, 0, 0, 0, 0, 0, 0, 0, 0, 0, 0, 0, 0
"L2766721", 12.47, 1,    7151.66,  -40.4,   0.99335, 0, 0, 0, 0, 0, 0, 0, 0, 0, 0, 0, 0
"M1026745", 12.47, 2,    3680.88, -176.0,   0.51126, 0, 0, 0, 0, 0, 0, 0, 0, 0, 0, 0, 0
"L3029183", 12.47, 2,    3680.83, -176.0,   0.51126, 0, 0, 0, 0, 0, 0, 0, 0, 0, 0, 0, 0
"L2710512", 12.47, 2,    3704.12, -176.5,   0.51449, 0, 0, 0, 0, 0, 0, 0, 0, 0, 0, 0, 0
"M1047828", 12.47, 2,    3701.91, -176.5,   0.51419, 0, 0, 0, 0, 0, 0, 0, 0, 0, 0, 0, 0
"M1047342", 12.47, 1,    7256.36,  -42.2,    1.0079, 0, 0, 0, 0, 0, 0, 0, 0, 0, 0, 0, 0
"L3197645", 12.47, 1,    7256.23,  -42.2,    1.0079, 0, 0, 0, 0, 0, 0, 0, 0, 0, 0, 0, 0
"M1069192", 12.47, 1,    7351.45,  -41.7,    1.0211, 0, 0, 0, 0, 0, 0, 0, 0, 0, 0, 0, 0
"L3235253", 12.47, 1,    7351.31,  -41.7,    1.0211, 0, 0, 0, 0, 0, 0, 0, 0, 0, 0, 0, 0
"L3214071", 12.47, 1,    7345.28,  -38.1,    1.0202, 2,    3690.93, -174.4,   0.51266, 3,    7379.04,   79.0,    1.0249, 0, 0, 0, 0
"M1125952", 12.47, 1,    7340.84,  -38.1,    1.0196, 2,    3689.98, -174.4,   0.51253, 3,    7374.04,   79.0,    1.0242, 0, 0, 0, 0
"M1027101", 12.47, 2,     3702.2, -176.5,   0.51423, 0, 0, 0, 0, 0, 0, 0, 0, 0, 0, 0, 0
"L2860480", 12.47, 2,    3702.04, -176.5,    0.5142, 0, 0, 0, 0, 0, 0, 0, 0, 0, 0, 0, 0
"L2710517", 12.47, 1,    7804.47,  -44.8,     1.084, 0, 0, 0, 0, 0, 0, 0, 0, 0, 0, 0, 0
"M1026646", 12.47, 1,    7803.09,  -44.8,    1.0838, 0, 0, 0, 0, 0, 0, 0, 0, 0, 0, 0, 0
"M1069662", 12.47, 2,     3802.2, -176.2,   0.52812, 0, 0, 0, 0, 0, 0, 0, 0, 0, 0, 0, 0
"L2935547", 12.47, 2,    3802.16, -176.2,   0.52811, 0, 0, 0, 0, 0, 0, 0, 0, 0, 0, 0, 0
"M1026931", 12.47, 1,     7924.3,  -45.0,    1.1007, 0, 0, 0, 0, 0, 0, 0, 0, 0, 0, 0, 0
"L3216336", 12.47, 1,    7923.79,  -45.0,    1.1006, 0, 0, 0, 0, 0, 0, 0, 0, 0, 0, 0, 0
"L3142049", 12.47, 1,    7225.37,  -40.1,    1.0036, 2,    3671.85, -175.0,   0.51001, 3,    7250.52,   78.1,    1.0071, 0, 0, 0, 0
"M1108493", 12.47, 1,    7219.78,  -40.2,    1.0028, 2,    3670.79, -175.0,   0.50986, 3,    7243.94,   78.1,    1.0062, 0, 0, 0, 0
"M1069169", 12.47, 1,     7356.6,  -41.7,    1.0218, 2,    4607.67, -173.9,   0.63999, 3,    7177.07,   82.0,   0.99688, 0, 0, 0, 0
"L3010556", 12.47, 1,    7350.74,  -41.7,     1.021, 2,    4601.62, -174.0,   0.63915, 3,    7175.64,   82.0,   0.99668, 0, 0, 0, 0
"L2991933", 12.47, 3,    6762.74,   75.4,   0.93933, 0, 0, 0, 0, 0, 0, 0, 0, 0, 0, 0, 0
"L3122837", 12.47, 3,    6762.01,   75.4,   0.93923, 0, 0, 0, 0, 0, 0, 0, 0, 0, 0, 0, 0
"L2691936", 12.47, 1,    7923.25,  -45.0,    1.1005, 0, 0, 0, 0, 0, 0, 0, 0, 0, 0, 0, 0
"L2897772", 12.47, 1,     7210.2,  -42.2,    1.0015, 0, 0, 0, 0, 0, 0, 0, 0, 0, 0, 0, 0
"L3101814", 12.47, 1,     7210.2,  -42.2,    1.0015, 0, 0, 0, 0, 0, 0, 0, 0, 0, 0, 0, 0
"L2766732", 12.47, 2,    4484.29, -174.8,   0.62286, 0, 0, 0, 0, 0, 0, 0, 0, 0, 0, 0, 0
"L2989564", 12.47, 2,    3802.36, -176.2,   0.52814, 0, 0, 0, 0, 0, 0, 0, 0, 0, 0, 0, 0
"M1126016", 12.47, 1,    7192.72,  -40.5,   0.99905, 0, 0, 0, 0, 0, 0, 0, 0, 0, 0, 0, 0
"L3120534", 12.47, 1,    7192.38,  -40.5,     0.999, 0, 0, 0, 0, 0, 0, 0, 0, 0, 0, 0, 0
"M1026330", 12.47, 1,    7159.98,  -42.2,    0.9945, 2,     4419.2, -174.9,   0.61381, 3,    7130.71,   81.5,   0.99044, 0, 0, 0, 0
"L2766726", 12.47, 2,    4419.16, -174.9,   0.61381, 0, 0, 0, 0, 0, 0, 0, 0, 0, 0, 0, 0
"P901912", 12.47, 2,    3825.92, -175.8,   0.53141, 0, 0, 0, 0, 0, 0, 0, 0, 0, 0, 0, 0
"L3195365", 12.47, 2,    3825.92, -175.8,   0.53141, 0, 0, 0, 0, 0, 0, 0, 0, 0, 0, 0, 0
"M1108381", 12.47, 1,    7251.31,  -39.3,    1.0072, 2,    3666.94, -174.8,   0.50933, 3,    7289.41,   78.5,    1.0125, 0, 0, 0, 0
"L3254237", 12.47, 1,    7250.29,  -39.3,     1.007, 2,    3666.57, -174.8,   0.50928, 3,    7288.53,   78.5,    1.0124, 0, 0, 0, 0
"L2804262", 12.47, 1,     7943.1,  -44.9,    1.1033, 0, 0, 0, 0, 0, 0, 0, 0, 0, 0, 0, 0
"L2841639", 12.47, 1,    7940.73,  -44.9,    1.1029, 0, 0, 0, 0, 0, 0, 0, 0, 0, 0, 0, 0
"N1230123", 12.47, 2,    3670.12, -174.8,   0.50977, 0, 0, 0, 0, 0, 0, 0, 0, 0, 0, 0, 0
"L2708744", 12.47, 2,    3669.35, -174.8,   0.50966, 0, 0, 0, 0, 0, 0, 0, 0, 0, 0, 0, 0
"M1069519", 12.47, 1,    7810.16,  -42.8,    1.0848, 2,       3849, -175.9,   0.53462, 3,    7166.14,   76.5,   0.99536, 0, 0, 0, 0
"P901927", 12.47, 2,    3848.99, -175.9,   0.53461, 0, 0, 0, 0, 0, 0, 0, 0, 0, 0, 0, 0
"L2897790", 12.47, 3,    7167.54,   76.5,   0.99555, 0, 0, 0, 0, 0, 0, 0, 0, 0, 0, 0, 0
"L2935566", 12.47, 3,     7167.4,   76.5,   0.99553, 0, 0, 0, 0, 0, 0, 0, 0, 0, 0, 0, 0
"L3216337", 12.47, 1,    7924.24,  -45.0,    1.1007, 0, 0, 0, 0, 0, 0, 0, 0, 0, 0, 0, 0
"P901931", 12.47, 3,    7167.79,   76.5,   0.99559, 0, 0, 0, 0, 0, 0, 0, 0, 0, 0, 0, 0
"M1069548", 12.47, 3,    7167.77,   76.5,   0.99558, 0, 0, 0, 0, 0, 0, 0, 0, 0, 0, 0, 0
"M1010013", 12.47, 1,    7778.39,  -45.4,    1.0804, 0, 0, 0, 0, 0, 0, 0, 0, 0, 0, 0, 0
"L3120503", 12.47, 1,    7778.33,  -45.4,    1.0804, 0, 0, 0, 0, 0, 0, 0, 0, 0, 0, 0, 0
...